[General]
network =Sd
sim-time-limit = 500s
Sd.numNodes = 4
Sd.node[*].pkLenBits = 952b
Sd.node[*].slotTime = 6.1s
Sd.node[*].txRate = 9.6kbps

[Config prj1]
Sd.node[0].isSrc = true
Sd.node[3].isDest = true
Sd.isPrj1 = true

[Config prj2]
Sd.node[0].isSrc = true
Sd.isPrj2 = true

[Config prj3]
Sd.node[0].isSrc = true
Sd.isPrj3 = true